4xfz_two_chain_raw - with-deletions_ligand2
                    3D
 Schrodinger Suite 2024-3.
 59 62  0  0  1  0            999 V2000
   18.0922  -24.3001   -2.3508 C   0  0  0  0  0  0
   18.3872  -23.3584   -3.3279 C   0  0  0  0  0  0
   19.0169  -23.9887   -4.3724 N   0  0  0  0  0  0
   18.2652  -22.5923    0.6995 N   0  0  0  0  0  0
   18.9716  -22.1630    1.9087 C   0  0  1  0  0  0
   19.0031  -20.6165    1.9832 C   0  0  0  0  0  0
   19.8936  -19.9465    0.9557 C   0  0  0  0  0  0
   19.4026  -19.6529   -0.3329 C   0  0  0  0  0  0
   20.2469  -19.1142   -1.2901 C   0  0  0  0  0  0
   21.5825  -18.8795   -0.9912 C   0  0  0  0  0  0
   22.0941  -19.2095    0.2574 C   0  0  0  0  0  0
   21.2661  -19.7593    1.2268 C   0  0  0  0  0  0
   18.3208  -22.7440    3.1977 C   0  0  0  0  0  0
   17.0866  -22.7518    3.2550 O   0  0  0  0  0  0
   19.1136  -23.1532    4.2288 N   0  0  0  0  0  0
   18.5290  -23.6533    5.4782 C   0  0  0  0  0  0
   20.5145  -23.1133    4.1545 C   0  0  0  0  0  0
   21.2129  -24.1629    3.5468 C   0  0  0  0  0  0
   22.5999  -24.0935    3.4372 C   0  0  0  0  0  0
   23.2802  -22.9858    3.9411 C   0  0  0  0  0  0
   22.5877  -21.9497    4.5638 C   0  0  0  0  0  0
   21.2033  -22.0171    4.6806 C   0  0  0  0  0  0
   18.3296  -23.8083    0.1371 C   0  0  0  0  0  0
   19.0953  -24.6906    0.5264 O   0  0  0  0  0  0
   17.3763  -24.0778   -1.0337 C   0  0  0  0  0  0
   18.6029  -25.5559   -2.8284 C   0  0  0  0  0  0
   19.1912  -25.3261   -4.1050 C   0  0  0  0  0  0
   19.8096  -26.3425   -4.8406 C   0  0  0  0  0  0
   19.8502  -27.6076   -4.2548 C   0  0  0  0  0  0
   19.2751  -27.8625   -3.0139 C   0  0  0  0  0  0
   18.6380  -26.8540   -2.2956 C   0  0  0  0  0  0
   18.1377  -21.8690   -3.3840 C   0  0  0  0  0  0
   19.3136  -23.4857   -5.1975 H   0  0  0  0  0  0
   17.5961  -21.9259    0.3301 H   0  0  0  0  0  0
   19.9970  -22.5137    1.8034 H   0  0  0  0  0  0
   19.3606  -20.2962    2.9620 H   0  0  0  0  0  0
   17.9973  -20.2028    1.8969 H   0  0  0  0  0  0
   18.3684  -19.8250   -0.5810 H   0  0  0  0  0  0
   19.8538  -18.8664   -2.2645 H   0  0  0  0  0  0
   22.2278  -18.4439   -1.7380 H   0  0  0  0  0  0
   23.1400  -19.0429    0.4709 H   0  0  0  0  0  0
   21.6735  -20.0268    2.1913 H   0  0  0  0  0  0
   18.9227  -23.0950    6.3282 H   0  0  0  0  0  0
   17.4417  -23.5716    5.5124 H   0  0  0  0  0  0
   18.7858  -24.7041    5.6165 H   0  0  0  0  0  0
   20.6841  -25.0150    3.1441 H   0  0  0  0  0  0
   23.1468  -24.8931    2.9597 H   0  0  0  0  0  0
   24.3557  -22.9330    3.8508 H   0  0  0  0  0  0
   23.1204  -21.0954    4.9525 H   0  0  0  0  0  0
   20.6727  -21.2164    5.1683 H   0  0  0  0  0  0
   16.7687  -24.9447   -0.7715 H   0  0  0  0  0  0
   16.6602  -23.2626   -1.1312 H   0  0  0  0  0  0
   20.2568  -26.1590   -5.8069 H   0  0  0  0  0  0
   20.3459  -28.4110   -4.7750 H   0  0  0  0  0  0
   19.3278  -28.8558   -2.5965 H   0  0  0  0  0  0
   18.1991  -27.0653   -1.3312 H   0  0  0  0  0  0
   17.4922  -21.5950   -4.2164 H   0  0  0  0  0  0
   17.6601  -21.4950   -2.4791 H   0  0  0  0  0  0
   19.0661  -21.3102   -3.5057 H   0  0  0  0  0  0
  1  2  2  0  0  0
  1 25  1  0  0  0
  1 26  1  0  0  0
  2  3  1  0  0  0
  2 32  1  0  0  0
  3 27  1  0  0  0
  3 33  1  0  0  0
  4  5  1  0  0  0
  4 23  1  0  0  0
  4 34  1  0  0  0
  5  6  1  0  0  0
  5 13  1  0  0  0
  5 35  1  0  0  0
  6  7  1  0  0  0
  6 36  1  0  0  0
  6 37  1  0  0  0
  7  8  2  0  0  0
  7 12  1  0  0  0
  8  9  1  0  0  0
  8 38  1  0  0  0
  9 10  2  0  0  0
  9 39  1  0  0  0
 10 11  1  0  0  0
 10 40  1  0  0  0
 11 12  2  0  0  0
 11 41  1  0  0  0
 12 42  1  0  0  0
 13 14  2  0  0  0
 13 15  1  0  0  0
 15 16  1  0  0  0
 15 17  1  0  0  0
 16 43  1  0  0  0
 16 44  1  0  0  0
 16 45  1  0  0  0
 17 18  2  0  0  0
 17 22  1  0  0  0
 18 19  1  0  0  0
 18 46  1  0  0  0
 19 20  2  0  0  0
 19 47  1  0  0  0
 20 21  1  0  0  0
 20 48  1  0  0  0
 21 22  2  0  0  0
 21 49  1  0  0  0
 22 50  1  0  0  0
 23 24  2  0  0  0
 23 25  1  0  0  0
 25 51  1  0  0  0
 25 52  1  0  0  0
 26 27  2  0  0  0
 26 31  1  0  0  0
 27 28  1  0  0  0
 28 29  2  0  0  0
 28 53  1  0  0  0
 29 30  1  0  0  0
 29 54  1  0  0  0
 30 31  2  0  0  0
 30 55  1  0  0  0
 31 56  1  0  0  0
 32 57  1  0  0  0
 32 58  1  0  0  0
 32 59  1  0  0  0
M  END
> <i_m_Source_File_Index>
1

> <b_m_subgroup_collapsed>
0

> <b_ppw_prepared>
1

> <r_i_Potential_Energy-S-OPLS>
-1626.25

> <s_m_Source_File>
proteinprep_4xfz_two_chain-out.maegz

> <s_m_Source_Path>
/users/8/ryu00043/proteinprep_4xfz_two_chain

> <s_m_entry_id>
5

> <s_m_job_name>
proteinprep_4xfz_two_chain

> <s_m_subgroup_title>
proteinprep_4xfz_two_chain-out->4xfz_two_chain_raw - with-deletions_split_by_structure

> <s_m_subgroupid>
proteinprep_4xfz_two_chain-out->4xfz_two_chain_raw - with-deletions_split_by_structure

$$$$
